---- qbsp / ericw-tools v0.18.1 ----
Input file: penitentiary.map
Output file: penitentiary.bsp

---- LoadMapFile ----
*** WARNING 06: No info_player_deathmatch entities in level
         9766 faces
         1484 brushes
          670 entities
           41 unique texnames
          920 texinfo

Opened WAD: C:/quake-map-penitentiary/wads/prototype_1_2.wad
Opened WAD: C:/quake-map-penitentiary/wads/id1.wad
Opened WAD: C:/quake-map-penitentiary/wads/rogue.wad
Processing hull 0...
---- Brush_LoadEntity ----
         1204 brushes
         1250 planes
---- CSGFaces ----
         7846 brushfaces
         9894 csgfaces
         7054 mergedfaces
---- SolidBSP ----
         9655 split nodes
         4116 solid leafs
         5540 empty leafs
            0 water leafs
            0 detail leafs
            0 detail illusionary leafs
            0 detail fence leafs
            0 illusionary visblocker leafs
        21572 leaffaces
        19840 nodefaces
---- Portalize ----
         5540 vis leafs
         5540 vis clusters
        16923 vis portals
---- FillOutside ----
         2665 outleafs
---- MergeAll ----
         4906 mergefaces
---- SolidBSP ----
         3679 split nodes
         1787 solid leafs
         1893 empty leafs
            0 water leafs
            0 detail leafs
            0 detail illusionary leafs
            0 detail fence leafs
            0 illusionary visblocker leafs
         9097 leaffaces
         7518 nodefaces
---- Portalize ----
*** WARNING 12: New portal was clipped away in CutNodePortals_r near (404.772 -1652.198 0.000)
         1893 vis leafs
         1893 vis clusters
         6151 vis portals
---- Tjunc ----
         6212 world edges
        27952 edge points
         6028 edges added by tjunctions
            0 faces added by tjunctions
---- MakeFaceEdges ----
---- GrowRegions ----
Processing hull 1...
Processing hull 2...
---- WriteBSPFile ----
Wrote penitentiary.bsp
         3548 planes            70960
        13080 vertexes         156960
         4872 nodes            116928
          718 texinfo           28720
         9146 faces            182920
        10628 clipnodes         85024
         2991 leafs             83748
        10725 marksurfaces      21450
        44161 surfedges        176644
        23016 edges             92064
           41 textures         333648
              lightdata             0
              visdata               0
              entdata           53477

2.160 seconds elapsed
Peak memory usage: 77285658 (73.7M)
