---- qbsp / ericw-tools v0.18.1 ----
Input file: penitentiary.map
Output file: penitentiary.bsp

---- LoadMapFile ----
*** WARNING 06: No info_player_deathmatch entities in level
         9952 faces
         1515 brushes
          847 entities
           38 unique texnames
          744 texinfo

Opened WAD: C:/quake-map-penitentiary/wads/prototype_1_2.wad
Opened WAD: C:/quake-map-penitentiary/wads/id1.wad
Opened WAD: C:/quake-map-penitentiary/wads/rogue.wad
Processing hull 0...
---- Brush_LoadEntity ----
         1234 brushes
         1345 planes
---- CSGFaces ----
         8026 brushfaces
        10287 csgfaces
         7334 mergedfaces
---- SolidBSP ----
        10619 split nodes
         4590 solid leafs
         6030 empty leafs
            0 water leafs
            0 detail leafs
            0 detail illusionary leafs
            0 detail fence leafs
            0 illusionary visblocker leafs
        22837 leaffaces
        21122 nodefaces
---- Portalize ----
         6030 vis leafs
         6030 vis clusters
        18779 vis portals
---- FillOutside ----
         2843 outleafs
---- MergeAll ----
         4994 mergefaces
---- SolidBSP ----
         3730 split nodes
         1790 solid leafs
         1941 empty leafs
            0 water leafs
            0 detail leafs
            0 detail illusionary leafs
            0 detail fence leafs
            0 illusionary visblocker leafs
         9036 leaffaces
         7395 nodefaces
---- Portalize ----
         1941 vis leafs
         1941 vis clusters
         6447 vis portals
---- Tjunc ----
         6310 world edges
        27659 edge points
         5853 edges added by tjunctions
            0 faces added by tjunctions
---- MakeFaceEdges ----
---- GrowRegions ----
Processing hull 1...
Processing hull 2...
---- WriteBSPFile ----
Wrote penitentiary.bsp
         3696 planes            73920
        12914 vertexes         154968
         4932 nodes            118368
          555 texinfo           22200
         9029 faces            180580
        10799 clipnodes         86392
         3048 leafs             85344
        10670 marksurfaces      21340
        43509 surfedges        174036
        22690 edges             90760
           38 textures         300876
              lightdata             0
              visdata               0
              entdata           64558

2.380 seconds elapsed
Peak memory usage: 81258728 (77.5M)
