---- qbsp / ericw-tools v0.18.1 ----
Input file: penitentiary.map
Output file: penitentiary.bsp

---- LoadMapFile ----
*** WARNING 06: No info_player_deathmatch entities in level
          780 faces
          130 brushes
           25 entities
            5 unique texnames
          181 texinfo

Opened WAD: C:/quake-map-penitentiary/wads/prototype_1_2.wad
Processing hull 0...
---- Brush_LoadEntity ----
          115 brushes
          147 planes
---- CSGFaces ----
          690 brushfaces
          838 csgfaces
          746 mergedfaces
---- SolidBSP ----
          787 split nodes
          280 solid leafs
          508 empty leafs
            0 water leafs
            0 detail leafs
            0 detail illusionary leafs
            0 detail fence leafs
            0 illusionary visblocker leafs
         1472 leaffaces
         1419 nodefaces
---- Portalize ----
          508 vis leafs
          508 vis clusters
         1320 vis portals
---- FillOutside ----
*** WARNING 10: Reached occupant at (-1664 20 436), no filling performed.
Leak file written to penitentiary.pts
---- MakeFaceEdges ----
---- GrowRegions ----
Processing hull 1...
*** WARNING 10: Reached occupant at (-1664 20 436), no filling performed.
Processing hull 2...
*** WARNING 10: Reached occupant at (-1664 20 436), no filling performed.
---- WriteBSPFile ----
Wrote penitentiary.bsp
          540 planes            10800
         1833 vertexes          21996
          877 nodes             21048
          165 texinfo            6600
         1509 faces             30180
         2136 clipnodes         17088
          599 leafs             16772
         1562 marksurfaces       3124
         6029 surfedges         24116
         3870 edges             15480
            5 textures          43744
              lightdata             0
              visdata               0
              entdata            1296

0.231 seconds elapsed
Peak memory usage: 9253272 (8.8M)
