---- qbsp / ericw-tools v0.18.1 ----
Input file: penitentiary.map
Output file: penitentiary.bsp

---- LoadMapFile ----
*** WARNING 06: No info_player_deathmatch entities in level
         8428 faces
         1260 brushes
          176 entities
           18 unique texnames
          636 texinfo

Opened WAD: C:/quake-map-penitentiary/wads/prototype_1_2.wad
Processing hull 0...
---- Brush_LoadEntity ----
         1005 brushes
          861 planes
---- CSGFaces ----
         6674 brushfaces
         7247 csgfaces
         5097 mergedfaces
---- SolidBSP ----
         6782 split nodes
         2935 solid leafs
         3848 empty leafs
            0 water leafs
            0 detail leafs
            0 detail illusionary leafs
            0 detail fence leafs
            0 illusionary visblocker leafs
        15484 leaffaces
        14701 nodefaces
---- Portalize ----
         3848 vis leafs
         3848 vis clusters
        11469 vis portals
---- FillOutside ----
         2015 outleafs
---- MergeAll ----
         3315 mergefaces
---- SolidBSP ----
         2604 split nodes
         1320 solid leafs
         1285 empty leafs
            0 water leafs
            0 detail leafs
            0 detail illusionary leafs
            0 detail fence leafs
            0 illusionary visblocker leafs
         6238 leaffaces
         5353 nodefaces
---- Portalize ----
         1285 vis leafs
         1285 vis clusters
         3933 vis portals
---- Tjunc ----
         4145 world edges
        20042 edge points
         3868 edges added by tjunctions
            0 faces added by tjunctions
---- MakeFaceEdges ----
---- GrowRegions ----
Processing hull 1...
Processing hull 2...
*** WARNING 16: Texture __TB_empty not found
---- WriteBSPFile ----
Wrote penitentiary.bsp
         2397 planes            47940
         9621 vertexes         115452
         3661 nodes             87864
          484 texinfo           19360
         6780 faces            135600
         7656 clipnodes         61248
         2237 leafs             62636
         7665 marksurfaces      15330
        32607 surfedges        130428
        17035 edges             68140
           18 textures         236036
              lightdata             0
              visdata               0
              entdata            9611

1.692 seconds elapsed
Peak memory usage: 56450722 (53.8M)
