---- qbsp / ericw-tools v0.18.1 ----
Input file: penitentiary.map
Output file: penitentiary.bsp

---- LoadMapFile ----
*** WARNING 06: No info_player_deathmatch entities in level
          908 faces
          152 brushes
           28 entities
            6 unique texnames
          225 texinfo

Opened WAD: C:/quake-map-penitentiary/wads/prototype_1_2.wad
Processing hull 0...
---- Brush_LoadEntity ----
          136 brushes
          183 planes
---- CSGFaces ----
          812 brushfaces
          945 csgfaces
          845 mergedfaces
---- SolidBSP ----
          954 split nodes
          345 solid leafs
          610 empty leafs
            0 water leafs
            0 detail leafs
            0 detail illusionary leafs
            0 detail fence leafs
            0 illusionary visblocker leafs
         1820 leaffaces
         1763 nodefaces
---- Portalize ----
          610 vis leafs
          610 vis clusters
         1658 vis portals
---- FillOutside ----
*** WARNING 10: Reached occupant at (-68 36 436), no filling performed.
Leak file written to penitentiary.pts
---- MakeFaceEdges ----
---- GrowRegions ----
Processing hull 1...
*** WARNING 10: Reached occupant at (-68 36 436), no filling performed.
Processing hull 2...
*** WARNING 10: Reached occupant at (-68 36 436), no filling performed.
---- WriteBSPFile ----
Wrote penitentiary.bsp
          624 planes            12480
         2246 vertexes          26952
         1050 nodes             25200
          198 texinfo            7920
         1859 faces             37180
         2473 clipnodes         19784
          707 leafs             19796
         1916 marksurfaces       3832
         7414 surfedges         29656
         4693 edges             18772
            6 textures          49228
              lightdata             0
              visdata               0
              entdata            1399

0.253 seconds elapsed
Peak memory usage: 11147116 (10.6M)
