---- qbsp / ericw-tools v0.18.1 ----
Input file: penitentiary.map
Output file: penitentiary.bsp

---- LoadMapFile ----
*** WARNING 06: No info_player_deathmatch entities in level
         3105 faces
          517 brushes
          130 entities
           12 unique texnames
          277 texinfo

Opened WAD: C:/quake-map-penitentiary/wads/prototype_1_2.wad
Processing hull 0...
---- Brush_LoadEntity ----
          439 brushes
          554 planes
---- CSGFaces ----
         2637 brushfaces
         3042 csgfaces
         2295 mergedfaces
---- SolidBSP ----
         3185 split nodes
         1207 solid leafs
         1979 empty leafs
            0 water leafs
            0 detail leafs
            0 detail illusionary leafs
            0 detail fence leafs
            0 illusionary visblocker leafs
         7274 leaffaces
         7000 nodefaces
---- Portalize ----
         1979 vis leafs
         1979 vis clusters
         5771 vis portals
---- FillOutside ----
*** WARNING 10: Reached occupant at (-240 -0 436), no filling performed.
Leak file written to penitentiary.pts
---- MakeFaceEdges ----
---- GrowRegions ----
Processing hull 1...
*** WARNING 10: Reached occupant at (-240 -0 436), no filling performed.
Processing hull 2...
*** WARNING 10: Reached occupant at (-240 -0 436), no filling performed.
*** WARNING 16: Texture __TB_empty not found
---- WriteBSPFile ----
Wrote penitentiary.bsp
         2061 planes            41220
         9694 vertexes         116328
         3653 nodes             87672
          256 texinfo           10240
         7692 faces            153840
         7996 clipnodes         63968
         2448 leafs             68544
         7966 marksurfaces      15932
        30722 surfedges        122888
        19477 edges             77908
           12 textures         141932
              lightdata             0
              visdata               0
              entdata            6579

0.658 seconds elapsed
Peak memory usage: 38795008 (37.0M)
