---- qbsp / ericw-tools v0.18.1 ----
Input file: penitentiary.map
Output file: penitentiary.bsp

---- LoadMapFile ----
*** WARNING 06: No info_player_deathmatch entities in level
         9369 faces
         1418 brushes
          528 entities
           31 unique texnames
         1157 texinfo

Opened WAD: C:/quake-map-penitentiary/wads/prototype_1_2.wad
Opened WAD: C:/quake-map-penitentiary/wads/id1.wad
Opened WAD: C:/quake-map-penitentiary/wads/rogue.wad
Processing hull 0...
---- Brush_LoadEntity ----
         1141 brushes
         1208 planes
---- CSGFaces ----
         7467 brushfaces
         9278 csgfaces
         6609 mergedfaces
---- SolidBSP ----
         9201 split nodes
         3901 solid leafs
         5301 empty leafs
            0 water leafs
            0 detail leafs
            0 detail illusionary leafs
            0 detail fence leafs
            0 illusionary visblocker leafs
        20064 leaffaces
        18490 nodefaces
---- Portalize ----
         5301 vis leafs
         5301 vis clusters
        16295 vis portals
---- FillOutside ----
         2540 outleafs
---- MergeAll ----
         4646 mergefaces
---- SolidBSP ----
         3538 split nodes
         1697 solid leafs
         1842 empty leafs
            0 water leafs
            0 detail leafs
            0 detail illusionary leafs
            0 detail fence leafs
            0 illusionary visblocker leafs
         8599 leaffaces
         7165 nodefaces
---- Portalize ----
*** WARNING 12: New portal was clipped away in CutNodePortals_r near (404.772 -1652.198 0.000)
         1842 vis leafs
         1842 vis clusters
         5975 vis portals
---- Tjunc ----
         5833 world edges
        26559 edge points
         5687 edges added by tjunctions
            0 faces added by tjunctions
---- MakeFaceEdges ----
---- GrowRegions ----
Processing hull 1...
Processing hull 2...
---- WriteBSPFile ----
Wrote penitentiary.bsp
         3587 planes            71740
        12460 vertexes         149520
         4677 nodes            112248
          898 texinfo           35920
         8724 faces            174480
        11079 clipnodes         88632
         2885 leafs             80780
        10158 marksurfaces      20316
        42147 surfedges        168588
        21959 edges             87836
           31 textures         354968
              lightdata             0
              visdata               0
              entdata           44327

2.165 seconds elapsed
Peak memory usage: 74700704 (71.2M)
