---- qbsp / ericw-tools v0.18.1 ----
Input file: penitentiary.map
Output file: penitentiary.bsp

---- LoadMapFile ----
*** WARNING 06: No info_player_deathmatch entities in level
          288 faces
           48 brushes
            7 entities
            4 unique texnames
           40 texinfo

Opened WAD: C:/quake-map-penitentiary/wads/prototype_1_2.wad
Processing hull 0...
---- Brush_LoadEntity ----
           45 brushes
           55 planes
---- CSGFaces ----
          270 brushfaces
          289 csgfaces
          261 mergedfaces
---- SolidBSP ----
          257 split nodes
           88 solid leafs
          170 empty leafs
            0 water leafs
            0 detail leafs
            0 detail illusionary leafs
            0 detail fence leafs
            0 illusionary visblocker leafs
          497 leaffaces
          493 nodefaces
---- Portalize ----
          170 vis leafs
          170 vis clusters
          409 vis portals
---- FillOutside ----
*** WARNING 10: Reached occupant at (-24 8 440), no filling performed.
Leak file written to penitentiary.pts
---- MakeFaceEdges ----
---- GrowRegions ----
Processing hull 1...
*** WARNING 10: Reached occupant at (-24 8 440), no filling performed.
Processing hull 2...
*** WARNING 19: No entities in empty space -- no filling performed (hull 2)
---- WriteBSPFile ----
Wrote penitentiary.bsp
          194 planes             3880
          546 vertexes           6552
          275 nodes              6600
           39 texinfo            1560
          511 faces             10220
          738 clipnodes          5904
          189 leafs              5292
          515 marksurfaces       1030
         2044 surfedges          8176
         1204 edges              4816
            4 textures          21940
              lightdata             0
              visdata               0
              entdata             331

0.156 seconds elapsed
Peak memory usage: 3189302 (3.0M)
