---- qbsp / ericw-tools v0.18.1 ----
Input file: penitentiary.map
Output file: penitentiary.bsp

---- LoadMapFile ----
*** WARNING 06: No info_player_deathmatch entities in level
         9940 faces
         1513 brushes
          847 entities
           38 unique texnames
          803 texinfo

Opened WAD: C:/quake-map-penitentiary/wads/prototype_1_2.wad
Opened WAD: C:/quake-map-penitentiary/wads/id1.wad
Opened WAD: C:/quake-map-penitentiary/wads/rogue.wad
Processing hull 0...
---- Brush_LoadEntity ----
         1232 brushes
         1346 planes
---- CSGFaces ----
         8014 brushfaces
        10259 csgfaces
         7344 mergedfaces
---- SolidBSP ----
        10589 split nodes
         4576 solid leafs
         6014 empty leafs
            0 water leafs
            0 detail leafs
            0 detail illusionary leafs
            0 detail fence leafs
            0 illusionary visblocker leafs
        22813 leaffaces
        21098 nodefaces
---- Portalize ----
         6014 vis leafs
         6014 vis clusters
        18722 vis portals
---- FillOutside ----
         2840 outleafs
---- MergeAll ----
         5008 mergefaces
---- SolidBSP ----
         3721 split nodes
         1793 solid leafs
         1929 empty leafs
            0 water leafs
            0 detail leafs
            0 detail illusionary leafs
            0 detail fence leafs
            0 illusionary visblocker leafs
         9039 leaffaces
         7399 nodefaces
---- Portalize ----
         1929 vis leafs
         1929 vis clusters
         6408 vis portals
---- Tjunc ----
         6324 world edges
        27706 edge points
         5858 edges added by tjunctions
            0 faces added by tjunctions
---- MakeFaceEdges ----
---- GrowRegions ----
Processing hull 1...
Processing hull 2...
---- WriteBSPFile ----
Wrote penitentiary.bsp
         3695 planes            73900
        12943 vertexes         155316
         4923 nodes            118152
          610 texinfo           24400
         9033 faces            180660
        10763 clipnodes         86104
         3036 leafs             85008
        10673 marksurfaces      21346
        43525 surfedges        174100
        22698 edges             90792
           38 textures         300876
              lightdata             0
              visdata               0
              entdata           64558

2.162 seconds elapsed
Peak memory usage: 81076762 (77.3M)
