---- qbsp / ericw-tools v0.18.1 ----
Input file: penitentiary.map
Output file: penitentiary.bsp

---- LoadMapFile ----
*** WARNING 06: No info_player_deathmatch entities in level
         8457 faces
         1270 brushes
          197 entities
           18 unique texnames
          707 texinfo

Opened WAD: C:/quake-map-penitentiary/wads/prototype_1_2.wad
Processing hull 0...
---- Brush_LoadEntity ----
         1032 brushes
          879 planes
---- CSGFaces ----
         6853 brushfaces
         7600 csgfaces
         5341 mergedfaces
---- SolidBSP ----
         7109 split nodes
         3075 solid leafs
         4035 empty leafs
            0 water leafs
            0 detail leafs
            0 detail illusionary leafs
            0 detail fence leafs
            0 illusionary visblocker leafs
        16108 leaffaces
        15280 nodefaces
---- Portalize ----
         4035 vis leafs
         4035 vis clusters
        11986 vis portals
---- FillOutside ----
         2030 outleafs
---- MergeAll ----
         3505 mergefaces
---- SolidBSP ----
         2684 split nodes
         1358 solid leafs
         1327 empty leafs
            0 water leafs
            0 detail leafs
            0 detail illusionary leafs
            0 detail fence leafs
            0 illusionary visblocker leafs
         6469 leaffaces
         5585 nodefaces
---- Portalize ----
         1327 vis leafs
         1327 vis clusters
         4097 vis portals
---- Tjunc ----
         4201 world edges
        20901 edge points
         4199 edges added by tjunctions
            0 faces added by tjunctions
---- MakeFaceEdges ----
---- GrowRegions ----
Processing hull 1...
Processing hull 2...
---- WriteBSPFile ----
Wrote penitentiary.bsp
         2567 planes            51340
         9854 vertexes         118248
         3740 nodes             89760
          546 texinfo           21840
         6980 faces            139600
         7972 clipnodes         63776
         2302 leafs             64456
         7864 marksurfaces      15728
        33681 surfedges        134724
        17440 edges             69760
           18 textures         274156
              lightdata             0
              visdata               0
              entdata           12106

1.835 seconds elapsed
Peak memory usage: 58422556 (55.7M)
