---- qbsp / ericw-tools v0.18.1 ----
Input file: penitentiary.map
Output file: penitentiary.bsp

---- LoadMapFile ----
*** WARNING 06: No info_player_deathmatch entities in level
         8252 faces
         1236 brushes
          170 entities
           17 unique texnames
          632 texinfo

Opened WAD: C:/quake-map-penitentiary/wads/prototype_1_2.wad
Processing hull 0...
---- Brush_LoadEntity ----
         1017 brushes
          871 planes
---- CSGFaces ----
         6762 brushfaces
         7307 csgfaces
         5139 mergedfaces
---- SolidBSP ----
         6862 split nodes
         2958 solid leafs
         3905 empty leafs
            0 water leafs
            0 detail leafs
            0 detail illusionary leafs
            0 detail fence leafs
            0 illusionary visblocker leafs
        15600 leaffaces
        14815 nodefaces
---- Portalize ----
         3905 vis leafs
         3905 vis clusters
        11663 vis portals
---- FillOutside ----
         2015 outleafs
---- MergeAll ----
         3356 mergefaces
---- SolidBSP ----
         2640 split nodes
         1330 solid leafs
         1311 empty leafs
            0 water leafs
            0 detail leafs
            0 detail illusionary leafs
            0 detail fence leafs
            0 illusionary visblocker leafs
         6284 leaffaces
         5395 nodefaces
---- Portalize ----
         1311 vis leafs
         1311 vis clusters
         4031 vis portals
---- Tjunc ----
         4198 world edges
        20235 edge points
         3886 edges added by tjunctions
            0 faces added by tjunctions
---- MakeFaceEdges ----
---- GrowRegions ----
Processing hull 1...
Processing hull 2...
*** WARNING 16: Texture __TB_empty not found
---- WriteBSPFile ----
Wrote penitentiary.bsp
         2411 planes            48220
         9435 vertexes         113220
         3582 nodes             85968
          480 texinfo           19200
         6676 faces            133520
         7372 clipnodes         58976
         2172 leafs             60816
         7565 marksurfaces      15130
        32145 surfedges        128580
        16664 edges             66656
           17 textures         230552
              lightdata             0
              visdata               0
              entdata            9797

1.832 seconds elapsed
Peak memory usage: 56626618 (54.0M)
