---- qbsp / ericw-tools v0.18.1 ----
Input file: penitentiary.map
Output file: penitentiary.bsp

---- LoadMapFile ----
*** WARNING 06: No info_player_deathmatch entities in level
         2213 faces
          367 brushes
           88 entities
            9 unique texnames
          427 texinfo

Opened WAD: C:/quake-map-penitentiary/wads/prototype_1_2.wad
Processing hull 0...
---- Brush_LoadEntity ----
          327 brushes
          330 planes
---- CSGFaces ----
         1973 brushfaces
         2080 csgfaces
         1666 mergedfaces
---- SolidBSP ----
         1961 split nodes
          750 solid leafs
         1212 empty leafs
            0 water leafs
            0 detail leafs
            0 detail illusionary leafs
            0 detail fence leafs
            0 illusionary visblocker leafs
         3774 leaffaces
         3650 nodefaces
---- Portalize ----
         1212 vis leafs
         1212 vis clusters
         3291 vis portals
---- FillOutside ----
*** WARNING 10: Reached occupant at (-68 4 436), no filling performed.
Leak file written to penitentiary.pts
---- MakeFaceEdges ----
---- GrowRegions ----
Processing hull 1...
*** WARNING 10: Reached occupant at (-68 4 436), no filling performed.
Processing hull 2...
*** WARNING 10: Reached occupant at (-68 4 436), no filling performed.
*** WARNING 16: Texture __TB_empty not found
---- WriteBSPFile ----
Wrote penitentiary.bsp
         1101 planes            22020
         4782 vertexes          57384
         2201 nodes             52824
          385 texinfo           15400
         3890 faces             77800
         4716 clipnodes         37728
         1453 leafs             40684
         4014 marksurfaces       8028
        15524 surfedges         62096
         9918 edges             39672
            9 textures          92840
              lightdata             0
              visdata               0
              entdata            3372

0.473 seconds elapsed
Peak memory usage: 22506836 (21.5M)
