---- qbsp / ericw-tools v0.18.1 ----
Input file: penitentiary.map
Output file: penitentiary.bsp

---- LoadMapFile ----
*** WARNING 06: No info_player_deathmatch entities in level
         3273 faces
          545 brushes
          145 entities
           12 unique texnames
          409 texinfo

Opened WAD: C:/quake-map-penitentiary/wads/prototype_1_2.wad
Processing hull 0...
---- Brush_LoadEntity ----
          460 brushes
          632 planes
---- CSGFaces ----
         2763 brushfaces
         3459 csgfaces
         2565 mergedfaces
---- SolidBSP ----
         3503 split nodes
         1341 solid leafs
         2163 empty leafs
            0 water leafs
            0 detail leafs
            0 detail illusionary leafs
            0 detail fence leafs
            0 illusionary visblocker leafs
         8076 leaffaces
         7668 nodefaces
---- Portalize ----
         2163 vis leafs
         2163 vis clusters
         6287 vis portals
---- FillOutside ----
*** WARNING 10: Reached occupant at (-240 -4 436), no filling performed.
Leak file written to penitentiary.pts
---- MakeFaceEdges ----
---- GrowRegions ----
Processing hull 1...
*** WARNING 10: Reached occupant at (-240 -4 436), no filling performed.
Processing hull 2...
*** WARNING 10: Reached occupant at (-240 -4 436), no filling performed.
*** WARNING 16: Texture __TB_empty not found
---- WriteBSPFile ----
Wrote penitentiary.bsp
         2452 planes            49040
        10630 vertexes         127560
         4013 nodes             96312
          369 texinfo           14760
         8402 faces            168040
         8744 clipnodes         69952
         2674 leafs             74872
         8810 marksurfaces      17620
        33545 surfedges        134180
        21393 edges             85572
           12 textures         141932
              lightdata             0
              visdata               0
              entdata            7303

0.731 seconds elapsed
Peak memory usage: 42573156 (40.6M)
