---- qbsp / ericw-tools v0.18.1 ----
Input file: penitentiary.map
Output file: penitentiary.bsp

---- LoadMapFile ----
*** WARNING 06: No info_player_deathmatch entities in level
         8332 faces
         1240 brushes
          167 entities
           18 unique texnames
          543 texinfo

Opened WAD: C:/quake-map-penitentiary/wads/prototype_1_2.wad
Processing hull 0...
---- Brush_LoadEntity ----
          988 brushes
          815 planes
---- CSGFaces ----
         6588 brushfaces
         8329 csgfaces
         5499 mergedfaces
---- SolidBSP ----
         6612 split nodes
         2775 solid leafs
         3838 empty leafs
            0 water leafs
            0 detail leafs
            0 detail illusionary leafs
            0 detail fence leafs
            0 illusionary visblocker leafs
        14869 leaffaces
        14279 nodefaces
---- Portalize ----
         3838 vis leafs
         3838 vis clusters
        11232 vis portals
---- FillOutside ----
         2954 outleafs
---- MergeAll ----
         1563 mergefaces
---- SolidBSP ----
         1019 split nodes
          507 solid leafs
          513 empty leafs
            0 water leafs
            0 detail leafs
            0 detail illusionary leafs
            0 detail fence leafs
            0 illusionary visblocker leafs
         2925 leaffaces
         2402 nodefaces
---- Portalize ----
          513 vis leafs
          513 vis clusters
         1291 vis portals
---- Tjunc ----
         2058 world edges
         8801 edge points
         1727 edges added by tjunctions
            0 faces added by tjunctions
---- MakeFaceEdges ----
---- GrowRegions ----
Processing hull 1...
Processing hull 2...
*** WARNING 16: Texture __TB_empty not found
---- WriteBSPFile ----
Wrote penitentiary.bsp
         1819 planes            36380
         5418 vertexes          65016
         2032 nodes             48768
          381 texinfo           15240
         3818 faces             76360
         4608 clipnodes         36864
         1415 leafs             39620
         4341 marksurfaces       8682
        17553 surfedges         70212
         9481 edges             37924
           18 textures         236036
              lightdata             0
              visdata               0
              entdata            8711

1.705 seconds elapsed
Peak memory usage: 48192998 (46.0M)
