---- qbsp / ericw-tools v0.18.1 ----
Input file: penitentiary.map
Output file: penitentiary.bsp

---- LoadMapFile ----
*** WARNING 06: No info_player_deathmatch entities in level
         9580 faces
         1453 brushes
          527 entities
           42 unique texnames
          963 texinfo

Opened WAD: C:/quake-map-penitentiary/wads/prototype_1_2.wad
Opened WAD: C:/quake-map-penitentiary/wads/id1.wad
Opened WAD: C:/quake-map-penitentiary/wads/rogue.wad
Processing hull 0...
---- Brush_LoadEntity ----
         1173 brushes
         1240 planes
---- CSGFaces ----
         7660 brushfaces
         9816 csgfaces
         6958 mergedfaces
---- SolidBSP ----
         9697 split nodes
         4115 solid leafs
         5583 empty leafs
            0 water leafs
            0 detail leafs
            0 detail illusionary leafs
            0 detail fence leafs
            0 illusionary visblocker leafs
        21709 leaffaces
        19955 nodefaces
---- Portalize ----
         5583 vis leafs
         5583 vis clusters
        17038 vis portals
---- FillOutside ----
         2656 outleafs
---- MergeAll ----
         4842 mergefaces
---- SolidBSP ----
         3715 split nodes
         1784 solid leafs
         1932 empty leafs
            0 water leafs
            0 detail leafs
            0 detail illusionary leafs
            0 detail fence leafs
            0 illusionary visblocker leafs
         9217 leaffaces
         7617 nodefaces
---- Portalize ----
         1932 vis leafs
         1932 vis clusters
         6161 vis portals
---- Tjunc ----
         6200 world edges
        28175 edge points
         6067 edges added by tjunctions
            0 faces added by tjunctions
---- MakeFaceEdges ----
---- GrowRegions ----
Processing hull 1...
Processing hull 2...
---- WriteBSPFile ----
Wrote penitentiary.bsp
         3551 planes            71020
        13202 vertexes         158424
         4872 nodes            116928
          772 texinfo           30880
         9254 faces            185080
        10701 clipnodes         85608
         2993 leafs             83804
        10854 marksurfaces      21708
        44635 surfedges        178540
        23222 edges             92888
           42 textures         384012
              lightdata             0
              visdata               0
              entdata           44434

2.070 seconds elapsed
Peak memory usage: 76778388 (73.2M)
