---- qbsp / ericw-tools v0.18.1 ----
Input file: penitentiary.map
Output file: penitentiary.bsp

---- LoadMapFile ----
*** WARNING 06: No info_player_deathmatch entities in level
         9634 faces
         1462 brushes
          552 entities
           38 unique texnames
          878 texinfo

Opened WAD: C:/quake-map-penitentiary/wads/prototype_1_2.wad
Opened WAD: C:/quake-map-penitentiary/wads/id1.wad
Opened WAD: C:/quake-map-penitentiary/wads/rogue.wad
Processing hull 0...
---- Brush_LoadEntity ----
         1182 brushes
         1241 planes
---- CSGFaces ----
         7714 brushfaces
         9828 csgfaces
         6998 mergedfaces
---- SolidBSP ----
         9634 split nodes
         4106 solid leafs
         5529 empty leafs
            0 water leafs
            0 detail leafs
            0 detail illusionary leafs
            0 detail fence leafs
            0 illusionary visblocker leafs
        21507 leaffaces
        19772 nodefaces
---- Portalize ----
         5529 vis leafs
         5529 vis clusters
        16896 vis portals
---- FillOutside ----
         2654 outleafs
---- MergeAll ----
         4865 mergefaces
---- SolidBSP ----
         3681 split nodes
         1787 solid leafs
         1895 empty leafs
            0 water leafs
            0 detail leafs
            0 detail illusionary leafs
            0 detail fence leafs
            0 illusionary visblocker leafs
         9076 leaffaces
         7480 nodefaces
---- Portalize ----
*** WARNING 12: New portal was clipped away in CutNodePortals_r near (404.772 -1652.198 0.000)
         1895 vis leafs
         1895 vis clusters
         6146 vis portals
---- Tjunc ----
         6182 world edges
        27828 edge points
         6003 edges added by tjunctions
            0 faces added by tjunctions
---- MakeFaceEdges ----
---- GrowRegions ----
Processing hull 1...
Processing hull 2...
---- WriteBSPFile ----
Wrote penitentiary.bsp
         3546 planes            70920
        13030 vertexes         156360
         4874 nodes            116976
          694 texinfo           27760
         9108 faces            182160
        10625 clipnodes         85000
         2993 leafs             83804
        10704 marksurfaces      21408
        43985 surfedges        175940
        22928 edges             91712
           38 textures         321276
              lightdata             0
              visdata               0
              entdata           46120

2.117 seconds elapsed
Peak memory usage: 76927136 (73.4M)
