---- qbsp / ericw-tools v0.18.1 ----
Input file: penitentiary.map
Output file: penitentiary.bsp

---- LoadMapFile ----
*** WARNING 06: No info_player_deathmatch entities in level
         7083 faces
         1103 brushes
          239 entities
           22 unique texnames
          465 texinfo

Opened WAD: C:/quake-map-penitentiary/wads/prototype_1_2.wad
Processing hull 0...
---- Brush_LoadEntity ----
          746 brushes
          748 planes
---- CSGFaces ----
         4703 brushfaces
         6006 csgfaces
         4125 mergedfaces
---- SolidBSP ----
         4969 split nodes
         1942 solid leafs
         3028 empty leafs
            0 water leafs
            0 detail leafs
            0 detail illusionary leafs
            0 detail fence leafs
            0 illusionary visblocker leafs
        10469 leaffaces
        10099 nodefaces
---- Portalize ----
         3028 vis leafs
         3028 vis clusters
         8944 vis portals
---- FillOutside ----
*** WARNING 10: Reached occupant at (320 -2592 24), no filling performed.
Leak file written to penitentiary.pts
---- MakeFaceEdges ----
---- GrowRegions ----
Processing hull 1...
*** WARNING 19: No entities in empty space -- no filling performed (hull 1)
Processing hull 2...
*** WARNING 19: No entities in empty space -- no filling performed (hull 2)
*** WARNING 16: Texture __TB_empty not found
---- WriteBSPFile ----
Wrote penitentiary.bsp
         2843 planes            56860
        15005 vertexes         180060
         6391 nodes            153384
          426 texinfo           17040
        11847 faces            236940
        13327 clipnodes        106616
         4342 leafs            121576
        12217 marksurfaces      24434
        47854 surfedges        191416
        30152 edges            120608
           22 textures         188612
              lightdata             0
              visdata               0
              entdata           13685

1.535 seconds elapsed
Peak memory usage: 58073846 (55.4M)
