---- qbsp / ericw-tools v0.18.1 ----
Input file: penitentiary.map
Output file: penitentiary.bsp

---- LoadMapFile ----
*** WARNING 06: No info_player_deathmatch entities in level
          546 faces
           91 brushes
           16 entities
            5 unique texnames
          100 texinfo

Opened WAD: C:/quake-map-penitentiary/wads/prototype_1_2.wad
Processing hull 0...
---- Brush_LoadEntity ----
           82 brushes
          103 planes
---- CSGFaces ----
          492 brushfaces
          567 csgfaces
          498 mergedfaces
---- SolidBSP ----
          565 split nodes
          200 solid leafs
          366 empty leafs
            0 water leafs
            0 detail leafs
            0 detail illusionary leafs
            0 detail fence leafs
            0 illusionary visblocker leafs
         1009 leaffaces
          970 nodefaces
---- Portalize ----
          366 vis leafs
          366 vis clusters
          957 vis portals
---- FillOutside ----
*** WARNING 10: Reached occupant at (-24 8 440), no filling performed.
Leak file written to penitentiary.pts
---- MakeFaceEdges ----
---- GrowRegions ----
Processing hull 1...
*** WARNING 10: Reached occupant at (-24 8 440), no filling performed.
Processing hull 2...
*** WARNING 19: No entities in empty space -- no filling performed (hull 2)
---- WriteBSPFile ----
Wrote penitentiary.bsp
          382 planes             7640
         1210 vertexes          14520
          619 nodes             14856
           92 texinfo            3680
         1024 faces             20480
         1443 clipnodes         11544
          421 leafs             11788
         1063 marksurfaces       2126
         4091 surfedges         16364
         2547 edges             10188
            5 textures          43744
              lightdata             0
              visdata               0
              entdata             731

0.192 seconds elapsed
Peak memory usage: 6305046 (6.0M)
