---- qbsp / ericw-tools v0.18.1 ----
Input file: penitentiary.map
Output file: penitentiary.bsp

---- LoadMapFile ----
*** WARNING 06: No info_player_deathmatch entities in level
         9433 faces
         1428 brushes
          536 entities
           41 unique texnames
         1243 texinfo

Opened WAD: C:/quake-map-penitentiary/wads/prototype_1_2.wad
Opened WAD: C:/quake-map-penitentiary/wads/id1.wad
Opened WAD: C:/quake-map-penitentiary/wads/rogue.wad
Processing hull 0...
---- Brush_LoadEntity ----
         1151 brushes
         1216 planes
---- CSGFaces ----
         7531 brushfaces
         9247 csgfaces
         6646 mergedfaces
---- SolidBSP ----
         9201 split nodes
         3906 solid leafs
         5296 empty leafs
            0 water leafs
            0 detail leafs
            0 detail illusionary leafs
            0 detail fence leafs
            0 illusionary visblocker leafs
        20269 leaffaces
        18678 nodefaces
---- Portalize ----
         5296 vis leafs
         5296 vis clusters
        16289 vis portals
---- FillOutside ----
         2542 outleafs
---- MergeAll ----
         4626 mergefaces
---- SolidBSP ----
         3532 split nodes
         1704 solid leafs
         1829 empty leafs
            0 water leafs
            0 detail leafs
            0 detail illusionary leafs
            0 detail fence leafs
            0 illusionary visblocker leafs
         8614 leaffaces
         7204 nodefaces
---- Portalize ----
*** WARNING 12: New portal was clipped away in CutNodePortals_r near (404.772 -1652.198 0.000)
         1829 vis leafs
         1829 vis clusters
         5929 vis portals
---- Tjunc ----
         5861 world edges
        26693 edge points
         5723 edges added by tjunctions
            0 faces added by tjunctions
---- MakeFaceEdges ----
---- GrowRegions ----
Processing hull 1...
Processing hull 2...
---- WriteBSPFile ----
Wrote penitentiary.bsp
         3578 planes            71560
        12527 vertexes         150324
         4671 nodes            112104
          951 texinfo           38040
         8763 faces            175260
        11044 clipnodes         88352
         2872 leafs             80416
        10173 marksurfaces      20346
        42339 surfedges        169356
        22055 edges             88220
           41 textures         447888
              lightdata             0
              visdata               0
              entdata           44480

2.143 seconds elapsed
Peak memory usage: 74735106 (71.3M)
