---- qbsp / ericw-tools v0.18.1 ----
Input file: penitentiary.map
Output file: penitentiary.bsp

---- LoadMapFile ----
*** WARNING 06: No info_player_deathmatch entities in level
         9387 faces
         1421 brushes
          536 entities
           35 unique texnames
         1211 texinfo

Opened WAD: C:/quake-map-penitentiary/wads/prototype_1_2.wad
Opened WAD: C:/quake-map-penitentiary/wads/id1.wad
Opened WAD: C:/quake-map-penitentiary/wads/rogue.wad
Processing hull 0...
---- Brush_LoadEntity ----
         1144 brushes
         1211 planes
---- CSGFaces ----
         7485 brushfaces
         9210 csgfaces
         6606 mergedfaces
---- SolidBSP ----
         9204 split nodes
         3887 solid leafs
         5318 empty leafs
            0 water leafs
            0 detail leafs
            0 detail illusionary leafs
            0 detail fence leafs
            0 illusionary visblocker leafs
        20139 leaffaces
        18560 nodefaces
---- Portalize ----
         5318 vis leafs
         5318 vis clusters
        16375 vis portals
---- FillOutside ----
*** WARNING 10: Reached occupant at (-2388 -708 416), no filling performed.
Leak file written to penitentiary.pts
---- MakeFaceEdges ----
---- GrowRegions ----
Processing hull 1...
Processing hull 2...
---- WriteBSPFile ----
Wrote penitentiary.bsp
         3772 planes            75440
        26510 vertexes         318120
        10343 nodes            248232
         1091 texinfo           43640
        20119 faces            402380
        11062 clipnodes         88496
         6361 leafs            178108
        21698 marksurfaces      43396
        81932 surfedges        327728
        53331 edges            213324
           35 textures         376904
              lightdata             0
              visdata               0
              entdata           44804

1.987 seconds elapsed
Peak memory usage: 95753344 (91.3M)
