---- qbsp / ericw-tools v0.18.1 ----
Input file: penitentiary.map
Output file: penitentiary.bsp

---- LoadMapFile ----
*** WARNING 06: No info_player_deathmatch entities in level
         9718 faces
         1476 brushes
          607 entities
           39 unique texnames
          895 texinfo

Opened WAD: C:/quake-map-penitentiary/wads/prototype_1_2.wad
Opened WAD: C:/quake-map-penitentiary/wads/id1.wad
Opened WAD: C:/quake-map-penitentiary/wads/rogue.wad
Processing hull 0...
---- Brush_LoadEntity ----
         1196 brushes
         1248 planes
---- CSGFaces ----
         7798 brushfaces
         9862 csgfaces
         7022 mergedfaces
---- SolidBSP ----
         9634 split nodes
         4106 solid leafs
         5529 empty leafs
            0 water leafs
            0 detail leafs
            0 detail illusionary leafs
            0 detail fence leafs
            0 illusionary visblocker leafs
        21526 leaffaces
        19791 nodefaces
---- Portalize ----
         5529 vis leafs
         5529 vis clusters
        16896 vis portals
---- FillOutside ----
         2654 outleafs
---- MergeAll ----
         4877 mergefaces
---- SolidBSP ----
         3681 split nodes
         1787 solid leafs
         1895 empty leafs
            0 water leafs
            0 detail leafs
            0 detail illusionary leafs
            0 detail fence leafs
            0 illusionary visblocker leafs
         9087 leaffaces
         7491 nodefaces
---- Portalize ----
*** WARNING 12: New portal was clipped away in CutNodePortals_r near (404.772 -1652.198 0.000)
         1895 vis leafs
         1895 vis clusters
         6146 vis portals
---- Tjunc ----
         6195 world edges
        27876 edge points
         6033 edges added by tjunctions
            0 faces added by tjunctions
---- MakeFaceEdges ----
---- GrowRegions ----
Processing hull 1...
Processing hull 2...
---- WriteBSPFile ----
Wrote penitentiary.bsp
         3546 planes            70920
        13056 vertexes         156672
         4874 nodes            116976
          702 texinfo           28080
         9119 faces            182380
        10625 clipnodes         85000
         2993 leafs             83804
        10715 marksurfaces      21430
        44059 surfedges        176236
        22965 edges             91860
           39 textures         326760
              lightdata             0
              visdata               0
              entdata           49278

2.141 seconds elapsed
Peak memory usage: 77129782 (73.6M)
