---- qbsp / ericw-tools v0.18.1 ----
Input file: penitentiary.map
Output file: penitentiary.bsp

---- LoadMapFile ----
*** WARNING 06: No info_player_deathmatch entities in level
         8373 faces
         1256 brushes
          174 entities
           17 unique texnames
          661 texinfo

Opened WAD: C:/quake-map-penitentiary/wads/prototype_1_2.wad
Processing hull 0...
---- Brush_LoadEntity ----
         1037 brushes
          883 planes
---- CSGFaces ----
         6883 brushfaces
         7691 csgfaces
         5422 mergedfaces
---- SolidBSP ----
         7283 split nodes
         3175 solid leafs
         4109 empty leafs
            0 water leafs
            0 detail leafs
            0 detail illusionary leafs
            0 detail fence leafs
            0 illusionary visblocker leafs
        16370 leaffaces
        15563 nodefaces
---- Portalize ----
         4109 vis leafs
         4109 vis clusters
        12373 vis portals
---- FillOutside ----
         2063 outleafs
---- MergeAll ----
         3588 mergefaces
---- SolidBSP ----
         2741 split nodes
         1388 solid leafs
         1354 empty leafs
            0 water leafs
            0 detail leafs
            0 detail illusionary leafs
            0 detail fence leafs
            0 illusionary visblocker leafs
         6615 leaffaces
         5692 nodefaces
---- Portalize ----
         1354 vis leafs
         1354 vis clusters
         4161 vis portals
---- Tjunc ----
         4309 world edges
        21332 edge points
         4327 edges added by tjunctions
            0 faces added by tjunctions
---- MakeFaceEdges ----
---- GrowRegions ----
Processing hull 1...
Processing hull 2...
*** WARNING 16: Texture __TB_empty not found
---- WriteBSPFile ----
Wrote penitentiary.bsp
         2390 planes            47800
         9877 vertexes         118524
         3683 nodes             88392
          501 texinfo           20040
         6973 faces            139460
         7844 clipnodes         62752
         2215 leafs             62020
         7896 marksurfaces      15792
        33780 surfedges        135120
        17482 edges             69928
           17 textures         230552
              lightdata             0
              visdata               0
              entdata            9799

1.900 seconds elapsed
Peak memory usage: 59265140 (56.5M)
