---- qbsp / ericw-tools v0.18.1 ----
Input file: penitentiary.map
Output file: penitentiary.bsp

---- LoadMapFile ----
*** WARNING 06: No info_player_deathmatch entities in level
         9297 faces
         1406 brushes
          496 entities
           23 unique texnames
         1123 texinfo

Opened WAD: C:/quake-map-penitentiary/wads/prototype_1_2.wad
Processing hull 0...
---- Brush_LoadEntity ----
         1127 brushes
         1193 planes
---- CSGFaces ----
         7383 brushfaces
         9242 csgfaces
         6582 mergedfaces
---- SolidBSP ----
         9110 split nodes
         3857 solid leafs
         5254 empty leafs
            0 water leafs
            0 detail leafs
            0 detail illusionary leafs
            0 detail fence leafs
            0 illusionary visblocker leafs
        19892 leaffaces
        18333 nodefaces
---- Portalize ----
         5254 vis leafs
         5254 vis clusters
        16128 vis portals
---- FillOutside ----
         2517 outleafs
---- MergeAll ----
         4542 mergefaces
---- SolidBSP ----
         3521 split nodes
         1698 solid leafs
         1824 empty leafs
            0 water leafs
            0 detail leafs
            0 detail illusionary leafs
            0 detail fence leafs
            0 illusionary visblocker leafs
         8480 leaffaces
         7061 nodefaces
---- Portalize ----
*** WARNING 12: New portal was clipped away in CutNodePortals_r near (404.772 -1652.198 0.000)
         1824 vis leafs
         1824 vis clusters
         5916 vis portals
---- Tjunc ----
         5736 world edges
        26138 edge points
         5546 edges added by tjunctions
            0 faces added by tjunctions
---- MakeFaceEdges ----
---- GrowRegions ----
Processing hull 1...
Processing hull 2...
*** WARNING 16: Texture __TB_empty not found
---- WriteBSPFile ----
Wrote penitentiary.bsp
         3596 planes            71920
        12316 vertexes         147792
         4672 nodes            112128
          879 texinfo           35160
         8632 faces            172640
        11110 clipnodes         88880
         2879 leafs             80612
        10051 marksurfaces      20102
        41639 surfedges        166556
        21705 edges             86820
           23 textures         292016
              lightdata             0
              visdata               0
              entdata           42822

2.106 seconds elapsed
Peak memory usage: 74425070 (71.0M)
