---- qbsp / ericw-tools v0.18.1 ----
Input file: penitentiary.map
Output file: penitentiary.bsp

---- LoadMapFile ----
*** WARNING 06: No info_player_deathmatch entities in level
        10086 faces
         1536 brushes
          848 entities
           39 unique texnames
          847 texinfo

Opened WAD: C:/quake-map-penitentiary/wads/prototype_1_2.wad
Opened WAD: C:/quake-map-penitentiary/wads/id1.wad
Opened WAD: C:/quake-map-penitentiary/wads/rogue.wad
Processing hull 0...
---- Brush_LoadEntity ----
         1254 brushes
         1353 planes
---- CSGFaces ----
         8146 brushfaces
        10312 csgfaces
         7389 mergedfaces
---- SolidBSP ----
        10634 split nodes
         4593 solid leafs
         6035 empty leafs
            7 water leafs
            0 detail leafs
            0 detail illusionary leafs
            0 detail fence leafs
            0 illusionary visblocker leafs
        22906 leaffaces
        21184 nodefaces
---- Portalize ----
         6042 vis leafs
         6042 vis clusters
        18823 vis portals
---- FillOutside ----
         2846 outleafs
---- MergeAll ----
         5025 mergefaces
---- SolidBSP ----
         3740 split nodes
         1798 solid leafs
         1940 empty leafs
            3 water leafs
            0 detail leafs
            0 detail illusionary leafs
            0 detail fence leafs
            0 illusionary visblocker leafs
         9060 leaffaces
         7430 nodefaces
---- Portalize ----
         1943 vis leafs
         1943 vis clusters
         6455 vis portals
---- Tjunc ----
         6361 world edges
        27806 edge points
         5863 edges added by tjunctions
            0 faces added by tjunctions
---- MakeFaceEdges ----
---- GrowRegions ----
Processing hull 1...
Processing hull 2...
---- WriteBSPFile ----
Wrote penitentiary.bsp
         3719 planes            74380
        13011 vertexes         156132
         4956 nodes            118944
          642 texinfo           25680
         9082 faces            181640
        10776 clipnodes         86208
         3064 leafs             85792
        10712 marksurfaces      21424
        43761 surfedges        175044
        22828 edges             91312
           39 textures         306360
              lightdata             0
              visdata               0
              entdata           63649

3.682 seconds elapsed
Peak memory usage: 81557868 (77.8M)
