---- qbsp / ericw-tools v0.18.1 ----
Input file: penitentiary.map
Output file: penitentiary.bsp

---- LoadMapFile ----
*** WARNING 06: No info_player_deathmatch entities in level
         9333 faces
         1412 brushes
          523 entities
           23 unique texnames
         1133 texinfo

Opened WAD: C:/quake-map-penitentiary/wads/prototype_1_2.wad
Processing hull 0...
---- Brush_LoadEntity ----
         1133 brushes
         1203 planes
---- CSGFaces ----
         7419 brushfaces
         9251 csgfaces
         6594 mergedfaces
---- SolidBSP ----
         9169 split nodes
         3885 solid leafs
         5285 empty leafs
            0 water leafs
            0 detail leafs
            0 detail illusionary leafs
            0 detail fence leafs
            0 illusionary visblocker leafs
        20007 leaffaces
        18444 nodefaces
---- Portalize ----
         5285 vis leafs
         5285 vis clusters
        16244 vis portals
---- FillOutside ----
         2529 outleafs
---- MergeAll ----
         4639 mergefaces
---- SolidBSP ----
         3549 split nodes
         1714 solid leafs
         1836 empty leafs
            0 water leafs
            0 detail leafs
            0 detail illusionary leafs
            0 detail fence leafs
            0 illusionary visblocker leafs
         8574 leaffaces
         7155 nodefaces
---- Portalize ----
*** WARNING 12: New portal was clipped away in CutNodePortals_r near (404.772 -1652.198 0.000)
         1836 vis leafs
         1836 vis clusters
         5959 vis portals
---- Tjunc ----
         5813 world edges
        26501 edge points
         5667 edges added by tjunctions
            0 faces added by tjunctions
---- MakeFaceEdges ----
---- GrowRegions ----
Processing hull 1...
Processing hull 2...
---- WriteBSPFile ----
Wrote penitentiary.bsp
         3600 planes            72000
        12446 vertexes         149352
         4700 nodes            112800
          883 texinfo           35320
         8726 faces            174520
        11110 clipnodes         88880
         2891 leafs             80948
        10145 marksurfaces      20290
        42135 surfedges        168540
        21953 edges             87812
           23 textures         297496
              lightdata             0
              visdata               0
              entdata           43778

2.300 seconds elapsed
Peak memory usage: 74458922 (71.0M)
